Version 4
SHEET 1 1720 700
WIRE 416 -208 416 -304
WIRE 464 -208 416 -208
WIRE 1024 -208 1024 -304
WIRE 1072 -208 1024 -208
WIRE 384 -160 304 -160
WIRE 480 -160 464 -160
WIRE 992 -160 912 -160
WIRE 1088 -160 1072 -160
WIRE 528 -144 528 -160
WIRE 544 -144 544 -208
WIRE 544 -144 528 -144
WIRE 1136 -144 1136 -160
WIRE 1152 -144 1152 -208
WIRE 1152 -144 1136 -144
WIRE -96 -96 -96 -160
WIRE 48 -96 48 -160
WIRE 304 -96 304 -160
WIRE 528 -96 528 -144
WIRE 912 -96 912 -160
WIRE 1136 -96 1136 -144
WIRE -32 -16 -96 -16
WIRE 48 -16 -32 -16
WIRE -32 0 -32 -16
WIRE 1488 192 1264 192
WIRE -16 208 -80 208
WIRE 128 208 64 208
WIRE -224 240 -240 240
WIRE -112 240 -144 240
WIRE 304 240 256 240
WIRE 448 240 384 240
WIRE 1024 320 992 320
WIRE 1104 320 1024 320
WIRE 1264 320 1264 192
WIRE 1264 320 1184 320
WIRE 1328 320 1264 320
WIRE 1456 320 1408 320
WIRE 1584 320 1520 320
WIRE 1680 320 1664 320
WIRE -112 336 -112 240
WIRE -80 336 -80 208
WIRE -80 336 -112 336
WIRE 0 336 -80 336
WIRE 1264 336 1264 320
WIRE -224 352 -240 352
WIRE -112 352 -112 336
WIRE -112 352 -144 352
WIRE 128 352 128 208
WIRE 128 352 64 352
WIRE 144 352 128 352
WIRE 256 352 256 240
WIRE 256 352 224 352
WIRE 304 352 256 352
WIRE 1024 352 1024 320
WIRE 0 368 -64 368
WIRE 448 368 448 240
WIRE 448 368 368 368
WIRE 496 368 448 368
WIRE 304 384 256 384
WIRE -64 416 -64 368
WIRE 256 416 256 384
WIRE 1024 432 1024 416
WIRE 1072 432 1024 432
WIRE 1264 432 1264 416
WIRE 1264 432 1072 432
WIRE 1680 432 1680 320
WIRE 1680 432 1264 432
WIRE 1072 464 1072 432
FLAG 912 -16 0
FLAG 1136 -96 0
FLAG 1024 -304 noise_output
IOPIN 1024 -304 Out
FLAG 304 -16 0
FLAG 528 -96 0
FLAG 416 -304 signal_output
IOPIN 416 -304 Out
FLAG -32 0 0
FLAG -96 -160 V+
IOPIN -96 -160 Out
FLAG 48 -160 V-
IOPIN 48 -160 Out
FLAG -64 416 0
FLAG 32 320 V+
IOPIN 32 320 In
FLAG 32 384 V-
IOPIN 32 384 In
FLAG -240 240 signal_output
IOPIN -240 240 In
FLAG -240 352 noise_output
IOPIN -240 352 In
FLAG 336 336 V+
IOPIN 336 336 In
FLAG 336 400 V-
IOPIN 336 400 In
FLAG 256 416 0
FLAG 496 368 signal_with_noise
IOPIN 496 368 Out
FLAG 992 320 signal_with_noise
IOPIN 992 320 In
FLAG 1072 464 0
SYMBOL voltage 912 -112 R0
WINDOW 123 0 0 Left 0
WINDOW 39 0 0 Left 0
SYMATTR InstName V1
SYMATTR Value PULSE(0 {von} 0 {ttrans} {ttrans} 0 {tperiod})
SYMBOL res 1088 -176 R90
WINDOW 0 0 56 VBottom 2
WINDOW 3 32 56 VTop 2
SYMATTR InstName R1
SYMATTR Value 10k
SYMBOL e 1056 -208 R270
SYMATTR InstName E1
SYMATTR Value 1
SYMBOL voltage 304 -112 R0
WINDOW 123 0 0 Left 0
WINDOW 39 0 0 Left 0
SYMATTR InstName V2
SYMATTR Value PULSE(0 6 700e-6 0 0 200e-6 400e-6 5)
SYMBOL res 480 -176 R90
WINDOW 0 0 56 VBottom 2
WINDOW 3 32 56 VTop 2
SYMATTR InstName R2
SYMATTR Value 10k
SYMBOL e 448 -208 R270
SYMATTR InstName E2
SYMATTR Value 1
SYMBOL voltage -96 -112 R0
WINDOW 123 0 0 Left 0
WINDOW 39 0 0 Left 0
SYMATTR InstName V3
SYMATTR Value 15
SYMBOL voltage 48 -112 R0
WINDOW 123 0 0 Left 0
WINDOW 39 0 0 Left 0
SYMATTR InstName V4
SYMATTR Value -15
SYMBOL OpAmps\\AD711 32 288 R0
SYMATTR InstName U1
SYMBOL res -128 224 R90
WINDOW 0 0 56 VBottom 2
WINDOW 3 32 56 VTop 2
SYMATTR InstName R3
SYMATTR Value 10k
SYMBOL res -128 336 R90
WINDOW 0 0 56 VBottom 2
WINDOW 3 32 56 VTop 2
SYMATTR InstName R4
SYMATTR Value 10k
SYMBOL res 80 192 R90
WINDOW 0 0 56 VBottom 2
WINDOW 3 32 56 VTop 2
SYMATTR InstName R5
SYMATTR Value 10k
SYMBOL res 240 336 R90
WINDOW 0 0 56 VBottom 2
WINDOW 3 32 56 VTop 2
SYMATTR InstName R6
SYMATTR Value 10k
SYMBOL OpAmps\\AD711 336 304 R0
SYMATTR InstName U2
SYMBOL res 400 224 R90
WINDOW 0 0 56 VBottom 2
WINDOW 3 32 56 VTop 2
SYMATTR InstName R7
SYMATTR Value 10k
SYMBOL cap 1008 352 R0
SYMATTR InstName C1
SYMBOL ind 1088 336 R270
WINDOW 0 32 56 VTop 2
WINDOW 3 5 56 VBottom 2
SYMATTR InstName L1
SYMBOL res 1248 320 R0
SYMATTR InstName R8
SYMBOL cap 1520 304 R90
WINDOW 0 0 32 VBottom 2
WINDOW 3 32 32 VTop 2
SYMATTR InstName C2
SYMBOL ind 1568 336 R270
WINDOW 0 32 56 VTop 2
WINDOW 3 5 56 VBottom 2
SYMATTR InstName L2
SYMBOL res 1424 304 R90
WINDOW 0 0 56 VBottom 2
WINDOW 3 32 56 VTop 2
SYMATTR InstName R9
TEXT 1280 -304 Left 2 !.tran 3000e-6
TEXT 1280 -144 Left 2 !;.param tperiod 10e-6
TEXT 1280 -104 Left 2 !.step param tperiod 0 45e-6 7e-6
TEXT 1280 -216 Left 2 !;.param von 6
TEXT 1280 -184 Left 2 !.step param von 1 6 1
TEXT 1280 -272 Left 2 !;.param ttrans 5e-6
TEXT 1280 -240 Left 2 !.step param ttrans 0.1e-6 6e-6 1.1e-6
TEXT 288 32 Left 2 !.tran 1000e-6
