Version 4
SHEET 1 1696 700
WIRE 1024 -208 1024 -304
WIRE 1072 -208 1024 -208
WIRE 992 -160 912 -160
WIRE 1088 -160 1072 -160
WIRE 1136 -144 1136 -160
WIRE 1152 -144 1152 -208
WIRE 1152 -144 1136 -144
WIRE 912 -96 912 -160
WIRE 1136 -96 1136 -144
FLAG 912 -16 0
FLAG 1136 -96 0
FLAG 1024 -304 noise_output
IOPIN 1024 -304 Out
SYMBOL voltage 912 -112 R0
WINDOW 123 0 0 Left 0
WINDOW 39 0 0 Left 0
SYMATTR InstName V1
SYMATTR Value PULSE(0 {von} 0 {ttrans} {ttrans} 0 {tperiod})
SYMBOL res 1088 -176 R90
WINDOW 0 0 56 VBottom 2
WINDOW 3 32 56 VTop 2
SYMATTR InstName R1
SYMATTR Value 10k
SYMBOL e 1056 -208 R270
SYMATTR InstName E1
SYMATTR Value 1
TEXT 896 32 Left 2 !.tran 1000e-6
TEXT 1280 -144 Left 2 !;.param tperiod 10e-6
TEXT 1280 -104 Left 2 !.step param tperiod 0 100e-6 10e-6
TEXT 1280 -216 Left 2 !;.param von 6
TEXT 1280 -184 Left 2 !.step param von 1 6 1
TEXT 1280 -272 Left 2 !;.param ttrans 5e-6
TEXT 1280 -240 Left 2 !.step param ttrans 0 5e-6 1e-6
